!
!   PROJECT: OI2014-082 IRMS DCN Pipeline Analysis
!   VERSION: A0                                  
!   AUTHOR: Duco Chapelle                        
!
!   ANSYS VERSION: 15.0
!   UNITS: Newton / mm / tonne / s
!   force       = tonne*mm/s/s = N
!   mass        = tonne
!   accel       = mm/s/s
!   length      = mm
!   pressure    = tonne*mm/s/s/mm/mm = N/mm/mm = MPa
!   CS: x = length, y = up, surface is at y = 0 + pipe diameter.
!
 
C*** General
FINISH $ /CLEAR,START $ /ESHA,1 $ /PBC,U,,1 $ /PBC,ROT,,1

!===================================================================
C*** Definitions
!===================================================================

! Place 0 and 8 are touchdown points. Other points are supports.
! Input from KDS-OFF-REP-145513-002 table 12

place_8=211038.340994698
place_7=228033.109435063
place_6=245024.448590425
place_5=265017.57336431
place_4=269016.674082028
place_3=274016.970186918
place_2=283017.267403668
place_1=291017.72948245
place_0=305019.165373101

! Pipe
pipe_init_h         = -20000    ! Initial height of pipe above the seabed
pipe_length         = 500000    ! Length of pipe [mm]
pipe_diameter       = 812.8     ! Outer diameter pipe [mm]
pipe_wallthk        = 15.9      ! Wall thickness pipe [mm]
pipe_nc             = 24        ! Circumferential elements [-]
pipe_nl             = 100       ! Length of elements [mm]
ext_cor_coat_thk    = 2.5       ! External corrosion coating [mm]
con_coat_thk        = 100       ! Concrete coating [mm] 
g_acc               = 9806      ! Gravitational acceleration [mm/s^2]
water_depth         = 24500     ! Used ad-hoc, for below-soil coordinates
seabed_width        = 5000
seabed_thickness    = 1000
l_fj                = 12200     ! length of one joint
l_cb                = 600       ! length of cut back

C*** Material Properties
! Densities [tonne/mm3]
ext_cor_coat        = 1.280e-9  ! [tonne/mm3]
concrete_coating    = 3.043e-9  ! [tonne/mm3]
content             = 1e-11     ! [tonne/mm3]
seawater            = 1.025e-9  ! [tonne/mm3]
steel               = 7.85e-9   ! [tonne/mm3]
soil                = 1e-15     ! [tonne/mm3]
! Other
absorption          = 0.05      ! [-]
pi                  = acos(-1)  ! [-]
soil_E              = 1.5e1     ! [MPa]
soil_v              = 0.3       ! [-]
steel_E             = 207e3     ! [MPa]
steel_v             = 0.3       ! [-]
soil_mu             = 0.05      ! [-]
! Post repair material
weight_pc 	    = 0.465	! [tonne]
weight_ik 	    = 2.235	! [tonne]
weight_ss           = 2.600	! [tonne]

C*** Added Mass
weight_con_coat = (((pipe_diameter+2*ext_cor_coat_thk+2*con_coat_thk)**2)-((pipe_diameter+2*ext_cor_coat_thk)**2))*pi*0.25*concrete_coating
weight_ext_cor_coat = ((pipe_diameter+2*ext_cor_coat_thk)**2-pipe_diameter**2)*pi*0.25*ext_cor_coat
weight_buoyancy = ((pipe_diameter+2*ext_cor_coat_thk+2*con_coat_thk)**2)*0.25*pi*seawater
weight_water_absorption= (weight_con_coat*absorption)/(concrete_coating/seawater)
weight_fjc = ((pipe_diameter+2*ext_cor_coat_thk+2*con_coat_thk)**2 - pipe_diameter**2)*pi*0.25*seawater
added_mass = (1-l_cb/l_fj)*(weight_ext_cor_coat + weight_con_coat + weight_water_absorption) + l_cb/l_fj*weight_fjc - weight_buoyancy

C*** Buoyancy Mass
buoy_pipe_st = (pipe_diameter**2-(pipe_diameter-2*pipe_wallthk)**2)*pi*0.25*seawater
buoy_weight_ext_cor_coat = ((pipe_diameter+2*ext_cor_coat_thk)**2-pipe_diameter**2)*pi*0.25*seawater
buoy_weight_con_coat = (((pipe_diameter+2*ext_cor_coat_thk+2*con_coat_thk)**2)-((pipe_diameter+2*ext_cor_coat_thk)**2))*pi*0.25*seawater
buoy_content = seawater*0.25*pi*(pipe_diameter-2*pipe_wallthk)**2 
total_buoy = buoy_pipe_st + buoy_weight_ext_cor_coat + buoy_weight_con_coat + buoy_content  

C*** Net Mass
net_ext_cor_coat = weight_ext_cor_coat - buoy_weight_ext_cor_coat 
net_con_coat = weight_con_coat - buoy_weight_con_coat

! The corrosion coating, concrete coating and water absorption is the weight that is taken off from the pipe.
mass_no_coating = net_ext_cor_coat + net_con_coat + weight_water_absorption   

! PlidCo, ContainmentClamp, StandoffSleeve

D_pc = 1008 ! [mm]
D_ik = 1400 ! [mm]
V_ss = 2860113129 ! [mm3]
W_pc =  365 ! [mm]
W_ik =  855 ! [mm]
W_ss = 1900 ! [mm]


F_pc_dry = weight_pc*g_acc
F_ik_dry = weight_ik*g_acc
F_ss_dry = weight_ss*g_acc
F_pc_wet = (weight_pc - pi/4*D_pc**2*W_pc*seawater)*g_acc 
F_ik_wet = (weight_ik - pi/4*D_ik**2*W_ik*seawater)*g_acc 
F_ss_wet = (weight_ss -              V_ss*seawater)*g_acc 


! forces that need to be subtracted to make it right
L_no_coating = 3000
F_no_coating = mass_no_coating*L_no_coating*g_acc 
L_dry = 6000 ! length of habitat
F_dry = total_buoy*L_dry*g_acc

C*** Hydrostatic Pressure
hyd_pres = water_depth*g_acc*seawater

C*** Load content
load_content = ((pipe_diameter-(2*pipe_wallthk))**2)*0.25*pi*content*g_acc

C*** Content Pressure
pres_stp = 6
*dim,pres_int,array,pres_stp
pres_int(1) = 2.07, 2.76, 3.45, 4.14, 4.83, 7.93

C*** Configurations
conf_stp = 1 ! Plidco                                   wet
conf_stp = 2 ! Plidco + ik clamp                      	wet
conf_stp = 3 ! Plidco + ik clamp                      	dry
conf_stp = 4 ! Plidco + ik clamp + S.O.S. (welded)      dry
conf_stp = 5 ! Plidco + ik clamp + S.O.S.            	wet


!===================================================================
/PREP7 
!===================================================================

C*** Define material
!steel
MPTEMP,,,,,,,, 
MPTEMP,1,0 
MPDATA,EX,1,,steel_E
MPDATA,PRXY,1,,steel_v
MPTEMP,,,,,,,, 
MPTEMP,1,0 
MPDATA,DENS,1,,steel 
!soil
MPTEMP,,,,,,,, 
MPTEMP,1,0 
MPDATA,EX,2,,soil_E 
MPDATA,PRXY,2,,soil_v 
MPTEMP,,,,,,,, 
MPTEMP,1,0 
MPDATA,DENS,2,,soil
 
C*** Define pipe
ET,1,PIPE288
SECTYPE,1,PIPE, ,  
SECDATA,pipe_diameter,pipe_wallthk,pipe_nc,0,1,0,0,0,
SECOFFSET,0,0, 
SECCONTROL,added_mass,  
KEYOPT,1,6,1
KEYOPT,1,4,2
 
C*** Define soil
ET,2,SOLID185
  
C*** Geometry
! Pipe
K,,0,pipe_init_h,0  
K,,pipe_length,pipe_init_h,0
line_pipe_start = 1
line_pipe_end = 2
L,1,2  
*get, line_pipe, LINE, 0, NUM, MAX

C*** Create Supports and Seabed
*get,kp_min,KP,0,NUM,MAX        ! Get minimum KP/Line number
kp_min = kp_min+1               ! ...
*get,ln_min,LINE,0,NUM,MAX      ! ...
ln_min = ln_min+1               ! ...
/INPUT,main,mac,,:FUN_SOIL      ! Create KPs from excel data
*get,kp_max,KP,0,NUM,MAX        ! Get maximum KP number

KSEL,,,,kp_min,kp_max           ! Give an offset to all just 
KMODIF, ALL,  , , seabed_width/2! created KPs, so that the pipe
ALLSEL                          ! will stay in the center.


*SET, kp_a, kp_min              ! Draw lines between all the KPs
*GET, kp_b, KP,kp_a,NXTH        ! ...
*DOWHILE, kp_b                  ! ...
    L, kp_a, kp_b               ! ...
    *SET, kp_a, kp_b            ! ...
    *GET, kp_b, KP,kp_a,NXTH    ! ...
*ENDDO                          ! ...
! ln_min defined above          ! ...
*GET, ln_max, LINE,0,NUM,MAX    ! ...

K,,0,-2*water_depth,0                       ! Draw drag lines
    *GET, kp_a, KP,0,NUM, MAX               ! for extrusion
K,,0,-2*water_depth-seabed_thickness,0      ! ...
    *GET, kp_b, KP,0,NUM, MAX               ! ...
K,,0,-2*water_depth,-seabed_width           ! ...
    *GET, kp_c, KP,0,NUM, MAX               ! ...
L,kp_a, kp_b                                ! ...
    *GET, drag_line_y, LINE, 0, NUM, MAX    ! ...
L,kp_a, kp_c                                ! ...
    *GET, drag_line_z, LINE, 0, NUM, MAX    ! ...

*DO, ln, ln_min, ln_max                     ! ...
    ADRAG, ln,,,,,,drag_line_y              ! Extrude lines to areas
    *GET, ar, AREA, 0, NUM, MAX             ! ...
    VDRAG, ar,,,,,,drag_line_z              ! Extrude areas to volumes
*ENDDO                                      ! ...

VSEL,S,LOC,X, place_8, place_0              ! Get rid of volumes
*DO,n,1,7                                   ! that are not supports
    VSEL,U,LOC,X, place_%n%                 ! nor seabed
*ENDDO                                      ! ...
VSEL,A,LOC,X, place_1                       ! remove support 1 15:58 29/05/2015
VSEL, INVERT                                ! ...
ASLV                                        ! ...
LSLA                                        ! ...
KSLL                                        ! ...
VSEL, INVERT                                ! ...
ASEL, INVERT                                ! ...
LSEL, INVERT                                ! ...
KSEL, INVERT                                ! ...
LSEL,u,,,1                                  ! ...
KSEL,u,,,1,2                                ! ...
VDELE, ALL                                  ! ...
ADELE, ALL                                  ! ...
LDELE, ALL                                  ! ...
KDELE, ALL                                  ! ...

ALLSEL                                      ! Merge coincident areas, 
NUMMRG, ALL                                 ! lines and KPs

C*** define support and soil fix and contact areas
ASEL, NONE                      ! Reset components        
CM, seabed_contact, AREA        ! ...
CM, seabed_fix, AREA            ! ...
CM, support_contact, AREA       ! ...
CM, support_fix, AREA           ! ...
ALLSEL                          ! Select everything
CM, v_cm, VOLUME                ! Create volumes component
*GET, v, VOLUME, 0, NXTH        ! Define the first volume
*DOWHILE, v                     ! 
    VSEL,S,,,v                  ! Select the volume
    ASLV                        ! Select its areas
    CM, a_cm, AREA              ! Put them in a component
    cent_y_max = -2*water_depth ! Set highest area are very low
    cent_y_min =  2*water_depth ! Set lowest area very high        
    cent_y_max_a = 0            ! Reset highest area id
    cent_y_min_a = 0            ! Reset lowest area id
    *GET, a, AREA, 0, NXTH      ! Define the first area
    *DOWHILE, a                 ! GET THE HIGHEST AND LOWEST AREA AND THE LOCATION IN PIPE LENGTH DIRECTION:
        ASEL,S,,,a                                  ! Select the area
        LSLA $ KSLL                                 ! Select its KPs
        cent_y = 0                                  ! Reset current area hight
        cent_x = 0                                  ! Reset current area length
        *GET, kp_n, KP, 0, NXTH                     ! Define the first KP
        *DOWHILE, kp_n                              !
            cent_y = cent_y+KY(kp_n)/4              ! Get area hight (average of each KP)
            cent_x = cent_x+KX(kp_n)/4              ! Get area length (average of each KP)
            *GET, kp_n, KP, kp_n, NXTH              ! Define the next KP
        *ENDDO                      
        *IF, cent_y, GT, cent_y_max, THEN           ! If this area is higher than the greatest hight
            cent_y_max = cent_y                     ! Then this hight is now the greatest
            cent_y_max_a = a                        ! And keep note which area it was
            x = cent_x                              ! Also, the length of the highest is the correct length
        *ELSEIF, cent_y, LT, cent_y_min, THEN       ! Otherwise, if this area is lower than the lowest hight
            cent_y_min = cent_y                     ! Then this is now the lowest hight        
            cent_y_min_a = a                        ! And keep not which area it was.
        *ENDIF                                      !
        CMSEL, S, a_cm                              ! Select all areas of this volume    
        *GET, a, AREA, a, NXTH                      ! Define the next area
    *ENDDO                      ! SAVE THE AREAS IN THE CORRESPONDING COMPONENTS AND GO TO THE NEXT VOLUME
    *IF, x, LT, place_8, OR, x, GT, place_0, THEN  
        CMSEL,S, seabed_fix     ! Select the component                   
        ASEL,a,,,cent_y_min_a   ! Append the area               
        CM,seabed_fix, AREA     ! Update the component
        CMSEL,S, seabed_contact ! For instance, contact areas of the seabed,               
        ASEL,a,,,cent_y_max_a   ! are areas with the greatest hight,
        CM,seabed_contact, AREA ! so they are appended.
    *ELSE                       ! If the volume is in between the touchdown points,
        CMSEL,S, support_fix    ! it belongs to one of the supports.
        ASEL,a,,,cent_y_max_a   ! Support contacts and fixations are both the top,
        CM,support_fix, AREA    ! therefore, the highest areas are used.
        CMSEL,S, support_contact! Select the component
        ASEL,a,,,cent_y_max_a   ! Append the area     
        CM,support_contact, AREA! Update the component
    *ENDIF                      !
    CMSEL, S, v_cm              ! Select all the volumes
    *GET, v, VOLUME, v, NXTH    ! Define the next volume           
*ENDDO                          !
ALLSEL

C*** Mesh
LESIZE,1,pipe_nl
LMESH,line_pipe
CM,LP_E,ELEM
CM,LP_N,NODE
VMESH,ALL
CMSEL,,LP_E
NSLE
*GET,node_numbers, NODE,0,COUNT

CMSEL,,LP_N
NSEL,R,LOC,X,place_1-L_no_coating/2,place_1+L_no_coating/2
*GET,nn_nc, NODE,0,COUNT
CM,LP_NC,NODE

CMSEL,,LP_N
NSEL,R,LOC,X,place_1-L_dry/2,place_1+L_dry/2
*GET,nn_dry, NODE,0,COUNT
CM,LP_DRY,NODE

CMSEL,,LP_N
a = node(place_1-W_ss/2,0,0)
b = node(place_1+w_ss/2,0,0)
NSEL,NONE
NSEL,a,,,a
NSEL,a,,,b
CM,LP_SOS,NODE

ALLSEL

 
C*** Contact
! Setup contact
MP,MU,2,soil_mu
MAT,2 ! nodig? 
R,4
REAL,4
ET,3,170
ET,4,177
R,4,,,0.1,1.0,0,10.0  ! the '10.0' factors the pinball region
RMORE,,,1.0E20,pipe_diameter/2,1.0,
RMORE,0.0,0,1.0,,1.0,0.5
RMORE,0,1.0,1.0,0.0,,1.0
RMORE,10.0 
KEYOPT,4,4,0
KEYOPT,4,5,0
KEYOPT,4,7,0
KEYOPT,4,8,0
KEYOPT,4,9,0
KEYOPT,4,10,2  
KEYOPT,4,11,0  
KEYOPT,4,12,0  
KEYOPT,4,2,0
KEYOPT,3,5,0
! Generate the target surface  
ASEL,S,,,seabed_contact
ASEL,A,,,support_contact
TYPE,3 
NSLA,S,1
ESLN,S,0
ESLL,U 
ESURF  
! Generate the contact surface 
LSEL,S,,,line_pipe 
TYPE,4 
NSLL,S,1
ESLN,S,0
ESURF  
ALLSEL 

!===================================================================
/SOLU
!===================================================================
ANTYPE,0
NLGEOM,1
! PSOLVE, ELFORM ! Partial solve to check for mass

!-------------------------------------------------------------------
C*** Load step 1: Displacement & external pressure
!-------------------------------------------------------------------
! pipe left side
KSEL,S,LOC,X,0
KSEL,U,,,line_pipe_start
*GET, kp_a, KP, 0, NXTH
ALLSEL
DK,line_pipe_start,UX,0
DK,line_pipe_start,UY,KY(kp_a)-KY(line_pipe_start)+pipe_diameter/2
DK,line_pipe_start,UZ,0
DK,line_pipe_start,ROTX,0
DK,line_pipe_start,ROTY,0
DK,line_pipe_start,ROTZ,0

! pipe right side
*GET, kp_bx, KP, line_pipe_end, LOC, X
KSEL,U,,,line_pipe_start,line_pipe_end
kp_b = KP(kp_bx,KY(kp_a),2500)
ALLSEL
DK,line_pipe_end,UY,KY(kp_b)-KY(line_pipe_end)+pipe_diameter/2
DK,line_pipe_end,UZ,0
DK,line_pipe_end,ROTX,0
DK,line_pipe_end,ROTY,0
DK,line_pipe_end,ROTZ,0

! support
DA,seabed_fix,ALL
DA,support_fix,ALL

! external pressure & hydrostatic pressure
SFE,LP_E,2,PRES,1,hyd_pres

SOLVE

!-------------------------------------------------------------------
C*** Load step 2: Apply gravity
!-------------------------------------------------------------------
CMACEL,LP_E, , g_acc, ,
SOLVE

!-------------------------------------------------------------------
C*** Load step 3: Release ends vertically
!-------------------------------------------------------------------
DKDELE,line_pipe_start,UY   ! Rest on seabed instead of constrain
DKDELE,line_pipe_end,UY     ! Rest on seabed instead of constrain
SOLVE

!-------------------------------------------------------------------
C*** Load step 4: Constrain ends axially
!-------------------------------------------------------------------
KSEL,,,,line_pipe_end
NSLK
*GET, u, NODE, NDNEXT(0), U, X
DK,line_pipe_end,UX,u
ALLSEL
SOLVE

!-------------------------------------------------------------------
C*** Load step 5+: Internal pressure + configurations
!-------------------------------------------------------------------
! TODO: 
! x make the wet and dry weights right, especially when/if adding them together
! o remove joints every 12 meters     


init_steps = 4 ! number of load steps to skip for post
flaw = node(place_1,0,0)
nc = F_no_coating/nn_nc
dr = F_dry/nn_dry

! conf 1: wet, plidco 
*DO,n,1,pres_stp
  SFE,LP_E,1,PRES,1, pres_int(n) ! internal pressure
  c = pres_int(n)*pipe_length*load_content/node_numbers
  F,LP_N,   FY,        -c               ! content weight
  F,LP_NC,  FY,    nc  -c               ! no coating
  F,flaw,   FY,    nc  -c  -F_pc_wet    ! plidco
  SOLVE
*ENDDO

! conf 2: wet, plidco, ik clamp
*DO,n,1,pres_stp
  SFE,LP_E,1,PRES,1, pres_int(n) ! internal pressure
  c = pres_int(n)*pipe_length*load_content/node_numbers
  F,LP_N,   FY,        -c                       ! content weight
  F,LP_NC,  FY,    nc  -c                       ! no coating
  F,flaw,   FY,    nc  -c  -F_pc_dry  -F_ik_wet ! plidco, ik
  SOLVE
*ENDDO

! conf 3: dry, plidco, ik clamp
*DO,n,1,pres_stp
  SFE,LP_E,1,PRES,1, pres_int(n) ! internal pressure
  c = pres_int(n)*pipe_length*load_content/node_numbers
  F,LP_N,   FY,         -c                       ! content weight
  F,LP_DRY, FY, -dr     -c                       ! dry dock
  F,LP_NC,  FY, -dr+nc  -c                       ! no coating
  F,flaw,   FY, -dr+nc  -c  -F_pc_dry  -F_ik_dry ! plidco, ik
  SOLVE
*ENDDO

! conf 4: dry, plidco, ik clamp, sos
*DO,n,1,pres_stp
  SFE,LP_E,1,PRES,1, pres_int(n) ! internal pressure
  c = pres_int(n)*pipe_length*load_content/node_numbers
  F,LP_N,   FY,         -c                         ! content weight
  F,LP_DRY, FY, -dr     -c                         ! dry dock
  F,LP_NC,  FY, -dr+nc  -c                         ! no coating
  F,LP_SOS, FY, -dr+nc  -c  -F_ss_dry/2            ! sos, on two nodes
  F,flaw,   FY, -dr+nc  -c  -F_pc_dry  -F_ik_dry   ! plidco, ik, on one node
  SOLVE
*ENDDO

! conf 5: wet, plidco, ik clamp, sos
*DO,n,1,pres_stp
  SFE,LP_E,1,PRES,1, pres_int(n) ! internal pressure
  c = pres_int(n)*pipe_length*load_content/node_numbers
  F,LP_N,   FY,        -c                       ! content weight
  F,LP_NC,  FY,    nc  -c                       ! no coating
  F,LP_SOS, FY,    nc  -c  -F_ss_wet/2          ! sos
  F,flaw,   FY,    nc  -c  -F_pc_dry  -F_ik_dry ! plidco, ik
  SOLVE
*ENDDO

!===================================================================
/POST1
!===================================================================

SET,LAST
PLNS,S,EQV

CMSEL,S,LP_E
*GET,elem_count,ELEM,0,COUNT
*DIM,graph, TABLE, elem_count, pres_stp+1
*DIM, argument, CHAR, 6
*DO,n,1,6,1
    /COLOR, CURVE, n*2,n
*ENDDO
! 
! *DO, n, 1, pres_stp, 
!   /GCOLUMN, n, LC_%n%
! *ENDDO
! 
! !direct hardcopies
! /SHOW, PNG, png
! PNGR, DEFAULT
! 
! old_init_steps = init_steps
! *DO,m,1,conf_stp
!     ! X: add location and displacement, convert to meters
!     ETABLE,ux, U, X
!     ETABLE,centx, CENT, X
!     SADD,locx, ux, centx, 1/1000, 1/1000, 0 
!     *VGET, graph(1,1), ELEM, all, ETAB, locx
!     *VOPER, graph(1,1), graph(1,1),ADD,137741
!     /XRANGE, 137900, 138100
!     
! 
!     /AXLAB,Y,Height [mm]
!     /AXLAB,X,Location [m]
!     /YRANGE, -2.360e4, -2.120e4
!     argument(1) = 'uy', 'U', 'Y','centy', 'CENT', 'Y'
!     /INPUT,main,mac,,:FUN2_PLOT
!     
!     /AXLAB,Y,Bending moment [Nmm]
!     /AXLAB,X,Location [m]
!     /YRANGE, -2.35e9, 1.0e9
!     argument(1) = 'Mz1', 'SMISC', '3' 
!     /INPUT,main,mac,,:FUN_PLOT
!     
!     /AXLAB,Y,Normal Stress [MPa]
!     /AXLAB,X,Location [m]
!     /YRANGE, 0, 80
!     argument(1) = 'SDIR', 'SMISC', '31'
!     /INPUT,main,mac,,:FUN_PLOT
!     
!     /AXLAB,Y,Bending Stress Top [MPa]
!     /AXLAB,X,Location [m]
!     /YRANGE, -1.1e2, 2.7e2
!     argument(1) = 'SByT', 'SMISC', '32'
!     /INPUT,main,mac,,:FUN_PLOT
!     
!     /AXLAB,Y,Bending Stress Bottom [MPa]
!     /AXLAB,X,Location [m]
!     /YRANGE, -2.7e2, 1.1e2
!     argument(1) = 'SByB', 'SMISC', '33'
!     /INPUT,main,mac,,:FUN_PLOT
!     
!     /AXLAB,Y,Hoop Stress [MPa]
!     /AXLAB,X,Location [m]
!     /YRANGE, 0, 2e2
!     argument(1) = 'Mhs1', 'SMISC', '64'
!     /INPUT,main,mac,,:FUN_PLOT
!     
!     /AXLAB,Y,Axial Stress Top [MPa]
!     /AXLAB,X,Location [m]
!     /YRANGE, -1.5e2, 3.0e2
!     argument(1) = 'SDIR', 'SMISC', '31','SByT', 'SMISC', '32'
!     /INPUT,main,mac,,:FUN2_PLOT
!     
!     /AXLAB,Y,Axial Stress Bottom [MPa]
!     /AXLAB,X,Location [m]
!     /YRANGE, -2.5e2, 2.0e2
!     argument(1) = 'SDIR', 'SMISC', '31','SByT', 'SMISC', '33'
!     /INPUT,main,mac,,:FUN2_PLOT
!     init_steps = init_steps + pres_stp
! *ENDDO
! init_steps = old_init_steps

! Following pictures arrange different configurations of the same 
! pressure in one graph. Above pictures do the opposite.

*DO, n, 1, 3, 
  /GCOLUMN, n, CONF_%n%
*ENDDO

ETABLE,ux, U, X
ETABLE,centx, CENT, X
SADD,locx, ux, centx, 1/1000, 1/1000, 0 
*VGET, graph(1,1), ELEM, all, ETAB, locx
*VOPER, graph(1,1), graph(1,1),ADD,137741
/XRANGE, 137900, 138100

/AXLAB,Y,Height [mm]
/AXLAB,X,Location [m]
/YRANGE, -2.360e4, -2.120e4
argument(1) = 'uy', 'U', 'Y','centy', 'CENT', 'Y'
/INPUT,main,mac,,:FUN3_PLOT

/AXLAB,Y,Bending moment [Nmm]
/AXLAB,X,Location [m]
/YRANGE, -2.35e9, 1.0e9
argument(1) = 'Mz1', 'SMISC', '3', '', '', ''
/INPUT,main,mac,,:FUN3_PLOT

/AXLAB,Y,Normal Stress [MPa]
/AXLAB,X,Location [m]
/YRANGE, 0, 80
argument(1) = 'SDIR', 'SMISC', '31', '', '', ''
/INPUT,main,mac,,:FUN3_PLOT

/AXLAB,Y,Bending Stress Top [MPa]
/AXLAB,X,Location [m]
/YRANGE, -1.1e2, 2.7e2
argument(1) = 'SByT', 'SMISC', '32', '', '', ''
/INPUT,main,mac,,:FUN3_PLOT

/AXLAB,Y,Bending Stress Bottom [MPa]
/AXLAB,X,Location [m]
/YRANGE, -2.7e2, 1.1e2
argument(1) = 'SByB', 'SMISC', '33', '', '', ''
/INPUT,main,mac,,:FUN3_PLOT

/AXLAB,Y,Hoop Stress [MPa]
/AXLAB,X,Location [m]
/YRANGE, 0, 2e2
argument(1) = 'Mhs1', 'SMISC', '64', '', '', ''
/INPUT,main,mac,,:FUN3_PLOT

/AXLAB,Y,Axial Stress Top [MPa]
/AXLAB,X,Location [m]
/YRANGE, -1.5e2, 3.0e2
argument(1) = 'SDIR', 'SMISC', '31','SByT', 'SMISC', '32'
/INPUT,main,mac,,:FUN3_PLOT

/AXLAB,Y,Axial Stress Bottom [MPa]
/AXLAB,X,Location [m]
/YRANGE, -2.5e2, 2.0e2
argument(1) = 'SDIR', 'SMISC', '31','SByT', 'SMISC', '33'
/INPUT,main,mac,,:FUN3_PLOT

/SHOW, CLOSE
    
C*** Get node displacements around crack
a=node(place_1-5000,0,0)
b=node(place_1+5000,0,0)
*DIM, us, ARRAY, 6, pres_stp, conf_stp
*DO, n, 1, pres_stp
    *DO, m, 1, conf_stp
        SET, init_steps+(m-1)*pres_stp+n, LAST
        *GET,aux, NODE, a, U, X
        *GET,auy, NODE, a, U, Y
        *GET,auz, NODE, a, U, Z
        *GET,bux, NODE, b, U, X
        *GET,buy, NODE, b, U, Y
        *GET,buz, NODE, b, U, Z
        *GET,arotx, NODE, a, ROT, X
        *GET,aroty, NODE, a, ROT, Y
        *GET,arotz, NODE, a, ROT, Z
        *GET,brotx, NODE, b, ROT, X
        *GET,broty, NODE, b, ROT, Y
        *GET,brotz, NODE, b, ROT, Z
        ! aux, auy, arotz, bux, buy, brotz 
        us(1,n,m) =  0, 0, -arotz*180/pi, bux-aux, buy-auy, -brotz*180/pi
    *ENDDO
*ENDDO
*MWRITE, us, us,csv,,ijk
(6F10.3)

C*** Clean up, the images
/SYS, i_view32 *.png /invert /convert=*.png
/SYS, md images
/SYS, move *.png images

! get all rforces of all supports
*do,m,5,34
  set,m, last
  *do,n,2,7
    vsel,s,loc,x,place_%n%
    eslv
    nsle
    /output,rforce_%n%_%m%,txt
    prrsol,fy
    /out
  *enddo
*enddo
! Following command requires the python programming language 
! and a particular python script. It extracts sum forces of the 
! rforce files made above and puts them in a list or table
!   The particular python file is embedded here. This is all 
! a pretty ugly solution.
! # BEGIN OF SCRIPT
! with open('rforce2.txt','w') as a:
!  a.write('lc, sup2, sup3, sup4, sup5, sup6, sup7\n')
!  for m in range(5,35): 
!    c = ''
!    for n in range(2,8): 
!      with open('rforce_{0}_{1}.txt'.format(n,m),'r') as b:
!        c += b.readlines()[-1].split('   ')[1].strip()+", "
!    a.write('{0}, {1}\n'.format(m,c))
! # END OF SCRIPT
/SYS, python rforce.py

! get vertical movement of pipe around crack
cmsel,,lp_n 
*SET,node_1 , node(place_1-3000,0,0)
*SET,node_2 , node(place_1     ,0,0) 
*SET,node_3 , node(place_1+3000,0,0)
*DIM, vmopt, array, 34,3
*DO,n,1,34
  *DO,i,1,3
    SET,n
    *GET,vmopt(n,%i%),NODE,node_%i%,U,Y
  *ENDDO
*ENDDO  
*MWRITE, vmopt, vmopt,csv,,jik
(3F10.3)

C*** THE END!
/EOF

!===================================================================
C*** FUNCTIONS
!===================================================================

:FUN_PLOT
    *DO, n, 1, pres_stp
        SET, n+init_steps, LAST
        ETABLE,argument(1), argument(2), argument(3)
        *VGET, graph(1,n+1), ELEM, all, ETAB, argument(1)
    *ENDDO
    *VPLOT, graph(1,1), graph(1,2), 3, 4, 5, 6, 7
/EOF

:FUN2_PLOT
    *DO, n, 1, pres_stp
        SET, n+init_steps, LAST
        ETABLE,argument(1), argument(2), argument(3)
        ETABLE,argument(4), argument(5), argument(6)
        SADD, temp, argument(1), argument(4), 1, 1, 0
        *VGET, graph(1,n+1), ELEM, all, ETAB, temp
    *ENDDO
    *VPLOT, graph(1,1), graph(1,2), 3, 4, 5, 6, 7
/EOF

:FUN3_PLOT
    *DO,n,1,pres_stp
        *DO,m,1,conf_stp
            *IF,m,eq,2,CYCLE
            *IF,m,eq,3,CYCLE
            set, init_steps+(m-1)*pres_stp+n, last   
            ETABLE,argument(1), argument(2), argument(3)
            ETABLE,argument(4), argument(5), argument(6)
            SADD, temp, argument(1), argument(4), 1, 1, 0   
            *VGET, graph(1,m+1), ELEM, all, ETAB, temp
        *ENDDO
        *VPLOT, graph(1,1), graph(1,2), 5, 6
    *ENDDO
/EOF

:FUN_SOIL
    ! Input from KDS-OFF-REP-145513-002 table 14 (appendix 12, OUT survey)
    ! About 100 meter is added before and after these measurements.
    
    K,kp_min,0              ,-23728
    K,,(1000:110000:1000)   ,-23728
    
    K,,110999.99999999      ,-23728
    K,,112000.922074849,-23726
    K,,113001.517673934,-23724
    K,,114002.4396749,-23711
    K,,115003.361712457,-23695
    K,,116004.283764892,-23679
    K,,117004.879349092,-23669
    K,,118005.475001917,-23661
    K,,119006.070696649,-23654
    K,,120006.340266461,-23653
    K,,121007.555395833,-23655
    K,,122007.825307267,-23657
    K,,123009.04076122,-23636
    K,,124009.310857944,-23605
    K,,125010.20092616,-23575
    K,,126010.471178533,-23574
    K,,127012.012490422,-23585
    K,,128012.28276879,-23595
    K,,129012.878531724,-23594
    K,,130013.474300907,-23588
! ... 283 like lines cut
    
    K,,(414000:514000:1000) ,-23481
/EOF
